LAMMPS (3 Mar 2020)
# Input file for uniaxial tensile loading of single crystal aluminum
# Mark Tschopp, November 2010

# ------------------------ INITIALIZATION ----------------------------
units 		real
dimension	3
boundary	p	p	p
atom_style	charge
#variable latparam equal 4.05

# ----------------------- ATOM DEFINITION ----------------------------
read_data	CSiNT10.data.Alpha
  orthogonal box = (0 0 0) to (50 50 50)
  reading atoms ...
  12261 atoms

# ------------------------ FORCE FIELDS ------------------------------
pair_style      reax/c lmp_control
pair_coeff      * * ffield_SEI.txt C Si

# ------------------------- SETTINGS ---------------------------------
compute peratom all pe/atom
compute csym all centro/atom 12
compute reax all pair reax/c

######################################
# EQUILIBRATION
reset_timestep	0
timestep 0.01
velocity all create 300 12345 mom yes rot no
fix 1 all npt temp 300 300 1 iso 0 0 1 drag 1
fix 3 all qeq/reax 1 0.0 10.0 1e-6 reax/c
# Set thermo output
thermo 200
thermo_style custom step lx ly lz press pxx pyy pzz pe temp

# Run for at least 10 picosecond (assuming 1 fs timestep)
run 1000
  update every 1 steps, delay 10 steps, check yes
Step Lx Ly Lz Press Pxx Pyy Pzz PotEng Temp
0           50           50           50    2629291.9    2615761.9    2619450.2    2652663.5    1722574.1          300
Loop time of 2377.39 on 1 procs for 1000 steps with 12261 atoms

unfix 1

# Store final cell length for strain calculations
variable tmp equal "lz"
variable L0 equal 67.6158468618598
Initial Length, L0: 67.6158468618598

######################################
# DEFORMATION
reset_timestep	0

fix		1 all npt temp 300 300 1 x 0 0 1 y 0 0 1 drag 1
variable srate equal 1.0e10
variable srate1 equal "v_srate / 1.0e12"
fix		2 all deform 1 z erate 0.01 remap x units box

# Output strain and stress info to file
# for units metal, pressure is in [bars] = 100 [kPa] = 1/10000 [GPa]
# p2, p3, p4 are in GPa
variable strain equal "(lz - v_L0)/v_L0"
variable p1 equal "v_strain"
variable p2 equal "-pxx/10000"
variable p3 equal "-pyy/10000"
variable p4 equal "-pzz/10000"

# Use cfg for AtomEye
dump 		1 all custom 100 dump.tensile id type x y z c_csym c_peratom fx fy fz

# Display thermo
thermo 	200
thermo_style	custom step v_strain temp v_p2 v_p3 v_p4 ke pe press

run		10000
Step v_strain Temp v_p2 v_p3 v_p4 KinEng PotEng Press
0 6.3051143e-16    1450.7536     -25.8323   -25.584659   -26.379549    53017.401   -1417470.1    259321.69
Averages over the last 26 of 51 rows, steps 5000 to 10000:
v_strain Temp v_p2 v_p3 v_p4 KinEng PotEng Press
0.75 830.374 -7.81021 -7.95958 11.6818 30345.8 -1.8065e+06 13626.6
Loop time of 22449.4 on 1 procs for 10000 steps with 12261 atoms

######################################
# SIMULATION DONE
print "Good Morning Neil"
Good Morning Neil

Please see the log.cite file for references relevant to this simulation
