LAMMPS (3 Mar 2020)
# Input file for uniaxial tensile loading of single crystal aluminum
# Mark Tschopp, November 2010

# ------------------------ INITIALIZATION ----------------------------
units 		real
dimension	3
boundary	p	p	p
atom_style	charge
#variable latparam equal 4.05

# ----------------------- ATOM DEFINITION ----------------------------
read_data	csi15.data.alpha
  orthogonal box = (-50 -50 0) to (50 50 50)
  reading atoms ...
  14054 atoms

# ------------------------ FORCE FIELDS ------------------------------
pair_style      reax/c lmp_control
pair_coeff      * * ffield_SEI.txt C Si

# ------------------------- SETTINGS ---------------------------------
compute peratom all pe/atom
compute csym all centro/atom 12
compute reax all pair reax/c

######################################
# EQUILIBRATION
reset_timestep	0
timestep 0.005
velocity all create 300 12345 mom yes rot no
fix 1 all npt temp 300 300 1 iso 0 0 1 drag 1
fix 3 all qeq/reax 1 0.0 10.0 1e-6 reax/c
# Set thermo output
thermo 200
thermo_style custom step lx ly lz press pxx pyy pzz pe temp

# Run for at least 10 picosecond (assuming 1 fs timestep)
run 10000
  update every 1 steps, delay 10 steps, check yes
Step Lx Ly Lz Press Pxx Pyy Pzz PotEng Temp
0          100          100           50    769026.01    767352.25    775809.55    763916.23    2084357.1          300
Averages over the last 7 of 14 rows, steps 1400 to 2600:
Lx Ly Lz Press Pxx Pyy Pzz PotEng Temp
135.782 135.782 67.891 -0.38977 173.567 -45.9573 -128.779 -1.61592e+06 1475.08
Loop time of 29456.7 on 1 procs for 10000 steps with 14054 atoms

unfix 1

# Store final cell length for strain calculations
variable tmp equal "lz"
variable L0 equal 68.2455930176565
Initial Length, L0: 68.2455930176565

######################################
# DEFORMATION
reset_timestep	0

fix		1 all npt temp 300 300 1 x 0 0 1 y 0 0 1 drag 1
variable srate equal 1.0e10
variable srate1 equal "v_srate / 1.0e12"
fix		2 all deform 1 z erate 0.01 remap x units box

# Output strain and stress info to file
# for units metal, pressure is in [bars] = 100 [kPa] = 1/10000 [GPa]
# p2, p3, p4 are in GPa
variable strain equal "(lz - v_L0)/v_L0"
variable p1 equal "v_strain"
variable p2 equal "-pxx/10000"
variable p3 equal "-pyy/10000"
variable p4 equal "-pzz/10000"

# Use cfg for AtomEye
dump 		1 all custom 100 dump15.tensile id type x y z c_csym c_peratom fx fy fz

# Display thermo
thermo 	200
thermo_style	custom step v_strain temp v_p2 v_p3 v_p4 ke pe press

run		10000
Step v_strain Temp v_p2 v_p3 v_p4 KinEng PotEng Press
0 2.082311e-16    499.99531    8.9897032    9.0586064    9.2855834    20944.465   -1963560.7   -91112.977
Averages over the last 26 of 51 rows, steps 5000 to 10000:
v_strain Temp v_p2 v_p3 v_p4 KinEng PotEng Press
0.375 1010.63 0.00011806 -0.000292611 5.83934 42334.7 -1.93219e+06 -19463.9
Loop time of 27458.4 on 1 procs for 10000 steps with 14054 atoms

######################################
# SIMULATION DONE
print "All done"
All done

Please see the log.cite file for references relevant to this simulation
